feeders/1_QUEB_1/004_chavesMT.dss
New Line.28CF_1658 phases=3 bus1=751461.1.2.3 bus2=28CF1658.1.2.3 r1=0.001 r0=0.001 x1=0 x0=0 c1=0 c0=0 length=0.001 switch=T
New Line.28CF_308 phases=3 bus1=20721.1.2.3 bus2=28CF308.1.2.3 r1=0.001 r0=0.001 x1=0 x0=0 c1=0 c0=0 length=0.001 switch=T
New Line.2CF_1119 phases=3 bus1=653271.1.2.3 bus2=2CF1119.1.2.3 r1=0.001 r0=0.001 x1=0 x0=0 c1=0 c0=0 length=0.001 switch=T
New Line.2CF_1437 phases=3 bus1=674421.1.2.3 bus2=2CF1437.1.2.3 r1=0.001 r0=0.001 x1=0 x0=0 c1=0 c0=0 length=0.001 switch=T
New Line.2CF_1452 phases=3 bus1=238091.1.2.3 bus2=2CF1452.1.2.3 r1=0.001 r0=0.001 x1=0 x0=0 c1=0 c0=0 length=0.001 switch=T
New Line.2CF_1895 phases=3 bus1=774191.1.2.3 bus2=2CF1895.1.2.3 r1=0.001 r0=0.001 x1=0 x0=0 c1=0 c0=0 length=0.001 switch=T
New Line.2CF_1928 phases=1 bus1=813821.2 bus2=2CF1928.2 r1=0.001 r0=0.001 x1=0 x0=0 c1=0 c0=0 length=0.001 switch=T
New Line.2CF_306 phases=3 bus1=664121.1.2.3 bus2=2CF306.1.2.3 r1=0.001 r0=0.001 x1=0 x0=0 c1=0 c0=0 length=0.001 switch=T
New Line.2CF_310 phases=2 bus1=66001.3.1 bus2=2CF310.3.1 r1=0.001 r0=0.001 x1=0 x0=0 c1=0 c0=0 length=0.001 switch=T
New Line.2CF_312 phases=1 bus1=20731.2 bus2=2CF312.2 r1=0.001 r0=0.001 x1=0 x0=0 c1=0 c0=0 length=0.001 switch=T
New Line.2CF_740 phases=1 bus1=326651.3 bus2=2CF740.3 r1=0.001 r0=0.001 x1=0 x0=0 c1=0 c0=0 length=0.001 switch=T
New Line.2CF_752 phases=2 bus1=315041.2.3 bus2=2CF752.2.3 r1=0.001 r0=0.001 x1=0 x0=0 c1=0 c0=0 length=0.001 switch=T
New Line.2CS_322 phases=3 bus1=459861.1.2.3 bus2=2CS322.1.2.3 r1=0.001 r0=0.001 x1=0 x0=0 c1=0 c0=0 length=0.001 switch=T
New Line.2CS_335 phases=3 bus1=275411.1.2.3 bus2=2CS335.1.2.3 r1=0.001 r0=0.001 x1=0 x0=0 c1=0 c0=0 length=0.001 switch=T
New Line.2DJ_4805 phases=3 bus1=1_QUEB_1.1.2.3 bus2=2DJ4805.1.2.3 r1=0.001 r0=0.001 x1=0 x0=0 c1=0 c0=0 length=0.001 switch=T
New Line.2FR_307 phases=3 bus1=20701.1.2.3 bus2=2FR307.1.2.3 r1=0.001 r0=0.001 x1=0 x0=0 c1=0 c0=0 length=0.001 switch=T
New Line.2FR_311 phases=1 bus1=20741.3 bus2=2FR311.3 r1=0.001 r0=0.001 x1=0 x0=0 c1=0 c0=0 length=0.001 switch=T
New Line.2FR_774 phases=3 bus1=369091.1.2.3 bus2=2FR774.1.2.3 r1=0.001 r0=0.001 x1=0 x0=0 c1=0 c0=0 length=0.001 switch=T
New Line.2RL_320 phases=3 bus1=665561.1.2.3 bus2=2RL320.1.2.3 r1=0.001 r0=0.001 x1=0 x0=0 c1=0 c0=0 length=0.001 switch=T
